Flow Title=Steady
Program Version=7.01
Number of Profiles= 1 
Profile Names=PF 1
River Rch & RM=River1,Reach1          ,1000.0  
     140
Boundary for River Rch & Prof#=River1,Reach1          , 1 
Up Type= 3 
Up Slope=0.00007
Dn Type= 2 
DSS Import StartDate=
DSS Import StartTime=
DSS Import EndDate=
DSS Import EndTime=
DSS Import GetInterval= 0 
DSS Import Interval=
DSS Import GetPeak= 0 
DSS Import FillOption= 0 
